Circuit: * C:\users\fabian\Documents\UTN\TC2\TS3_2024\TS3.asc


Date: Sat May 18 21:07:59 2024
Total elapsed time: 0.057 seconds.

tnom = 27
temp = 27
method = trap
totiter = 0
traniter = 0
tranpoints = 0
accept = 0
rejected = 0
matrix size = 5
fillins = 1
solver = Normal

